Version 4.1
SHEET 1 992 680
WIRE 192 112 176 112
WIRE 448 112 432 112
WIRE 720 112 704 112
WIRE 176 192 160 192
WIRE 432 192 416 192
WIRE 704 192 688 192
FLAG 176 272 0
FLAG 256 112 0
FLAG 176 192 V_LOW
FLAG 80 272 0
FLAG 432 272 0
FLAG 512 112 0
FLAG 432 192 V_HIGH
FLAG 336 272 0
FLAG 704 272 0
FLAG 784 112 0
FLAG 704 192 V_17.5
FLAG 608 272 0
SYMBOL res 160 96 R0
SYMATTR InstName R3
SYMATTR Value 75K
SYMBOL res 160 176 R0
SYMATTR InstName R4
SYMATTR Value 18K
SYMBOL res 176 176 R90
WINDOW 0 0 56 VBottom 2
WINDOW 3 32 56 VTop 2
SYMATTR InstName R5
SYMATTR Value 18k
SYMBOL voltage 160 112 R270
WINDOW 0 32 56 VTop 2
WINDOW 3 -32 56 VBottom 2
WINDOW 123 0 0 Left 0
WINDOW 39 0 0 Left 0
SYMATTR InstName V1
SYMATTR Value 12
SYMBOL voltage 80 176 R0
WINDOW 123 0 0 Left 0
WINDOW 39 0 0 Left 0
SYMATTR InstName V2
SYMATTR Value 0
SYMBOL res 416 96 R0
SYMATTR InstName R1
SYMATTR Value 75K
SYMBOL res 416 176 R0
SYMATTR InstName R2
SYMATTR Value 8.6k
SYMBOL res 432 176 R90
WINDOW 0 0 56 VBottom 2
WINDOW 3 32 56 VTop 2
SYMATTR InstName R6
SYMATTR Value 18k
SYMBOL voltage 416 112 R270
WINDOW 0 32 56 VTop 2
WINDOW 3 -32 56 VBottom 2
WINDOW 123 0 0 Left 0
WINDOW 39 0 0 Left 0
SYMATTR InstName V3
SYMATTR Value 12
SYMBOL voltage 336 176 R0
WINDOW 123 0 0 Left 0
WINDOW 39 0 0 Left 0
SYMATTR InstName V4
SYMATTR Value 12
SYMBOL res 688 96 R0
SYMATTR InstName R7
SYMATTR Value 75K
SYMBOL res 688 176 R0
SYMATTR InstName R8
SYMATTR Value 8.6k
SYMBOL res 704 176 R90
WINDOW 0 0 56 VBottom 2
WINDOW 3 32 56 VTop 2
SYMATTR InstName R9
SYMATTR Value 17.5k
SYMBOL voltage 688 112 R270
WINDOW 0 32 56 VTop 2
WINDOW 3 -32 56 VBottom 2
WINDOW 123 0 0 Left 0
WINDOW 39 0 0 Left 0
SYMATTR InstName V5
SYMATTR Value 12
SYMBOL voltage 608 176 R0
WINDOW 123 0 0 Left 0
WINDOW 39 0 0 Left 0
SYMATTR InstName V6
SYMATTR Value 12
TEXT 184 296 Left 2 !.op
