Version 4
SHEET 1 880 680
WIRE 144 176 112 176
FLAG 144 256 0
FLAG 224 96 0
FLAG 32 256 0
FLAG 144 176 V
SYMBOL res 128 160 R90
WINDOW 0 0 56 VBottom 2
WINDOW 3 32 56 VTop 2
SYMATTR InstName R1
SYMATTR Value 34.8K
SYMBOL res 128 80 R0
SYMATTR InstName R2
SYMATTR Value 75K
SYMBOL res 128 160 R0
SYMATTR InstName R3
SYMATTR Value 11K
SYMBOL voltage 128 96 R270
WINDOW 0 32 56 VTop 2
WINDOW 3 -32 56 VBottom 2
WINDOW 123 0 0 Left 0
WINDOW 39 0 0 Left 0
SYMATTR InstName V1
SYMATTR Value 12
SYMBOL res 16 160 R0
SYMATTR InstName R4
SYMATTR Value 100K
TEXT 0 280 Left 2 !.op
