Version 4
SHEET 1 880 680
WIRE 368 96 208 96
WIRE 112 176 96 176
WIRE 208 176 192 176
FLAG 96 256 0
FLAG 208 256 0
FLAG 368 176 0
FLAG 208 176 V
FLAG 96 96 0
SYMBOL res 80 80 R0
SYMATTR InstName R1
SYMATTR Value 22K
SYMBOL res 80 160 R0
SYMATTR InstName R2
SYMATTR Value 33K
SYMBOL res 192 80 R0
SYMATTR InstName R3
SYMATTR Value 75K
SYMBOL res 192 160 R0
SYMATTR InstName R4
SYMATTR Value 20K
SYMBOL res 208 160 R90
WINDOW 0 0 56 VBottom 2
WINDOW 3 32 56 VTop 2
SYMATTR InstName R5
SYMATTR Value 18K
SYMBOL voltage 368 80 R0
WINDOW 123 0 0 Left 0
WINDOW 39 0 0 Left 0
SYMATTR InstName V1
SYMATTR Value 12
TEXT 280 264 Left 2 !.op
